CRYSTAL
PRIMVEC
  4.604667   0.000000   0.000000
 -2.302334   3.987758   0.000000
  0.000000   0.000000   5.207755
PRIMCOORD
9 1
14   2.042915   0.000000   1.735918
14  -1.021457   1.769216   3.471836
14   1.280876   2.218542   0.000000
 8   1.103082   1.221122   1.264555
 8   2.995603   0.344735   3.000473
 8   2.808316   2.421900   4.736391
 8   0.505982   1.565857   3.943200
 8  -1.199252   2.766636   2.207282
 8   0.693270   3.643022   0.471363
